47

C          2.15850        0.32520        0.76730
C          2.09860       -1.04980        0.90160
C          0.90240       -1.71670        0.66970
C         -0.27470       -1.03350        0.28850
C         -1.47700       -1.90460        0.05100
N         -1.46330       -3.10940       -0.60550
C         -2.73310       -3.55130       -0.54970
C         -3.27760       -4.72420       -1.08150
C         -4.65390       -4.94660       -0.90310
C         -5.44320       -4.00690       -0.20720
C         -4.86280       -2.83890        0.31900
C         -3.49440       -2.64350        0.12550
N         -2.71790       -1.61530        0.51700
Zn        -3.07000       -0.08560        1.48050
Cl        -5.13880        0.05100        2.25040
Cl        -1.74680        0.03170        3.23880
N         -2.60790        1.20330        0.25030
C         -3.31750        2.18420       -0.33590
C         -4.66580        2.50520       -0.17340
C         -5.18270        3.58150       -0.91260
C         -4.35280        4.30720       -1.79000
C         -2.99820        3.96180       -1.93740
C         -2.50960        2.88280       -1.18630
N         -1.26680        2.35410       -1.14610
C         -0.11930        2.79130       -1.95350
C         -1.35360        1.31170       -0.25420
C         -0.21510        0.40670        0.14980
C          1.02290        1.03870        0.40140
C         -0.37650       -3.81330       -1.29570
H          3.08820        0.84610        0.95860
H          2.98110       -1.60340        1.19630
H          0.90190       -2.78900        0.81400
H         -2.66890       -5.43990       -1.61810
H         -5.11150       -5.84120       -1.30490
H         -6.50320       -4.18410       -0.07970
H         -5.47630       -2.12800        0.84130
H         -5.31100        1.95810        0.48800
H         -6.22520        3.85350       -0.80810
H         -4.76240        5.13480       -2.35430
H         -2.37640        4.52890       -2.61370
H         -0.40040        3.58810       -2.66740
H          0.27000        1.93590       -2.54360
H          0.68030        3.22720       -1.33210
H          1.12680        2.10640        0.35380
H          0.56130       -3.23170       -1.32780
H         -0.66610       -3.99150       -2.35220
H         -0.19220       -4.79160       -0.80250
